-------------------------------------------------------
          Amber 16 PMEMD                              2016
          -------------------------------------------------------

  [-O]verwriting output

File Assignments:

 Here is the input file:

Minimization
&cntrl
 imin=0,
 nstlim=2000000, dt=0.001,
 irest=0, ntx=1,
 ntpr=2000, ntwr=2000, ntwx=2000,
 ioutfm=0, iwrap=1,
 ntt=3, gamma_ln=3, ig=71111,
 ntb=2, ntp=1,
 pres0=1.0, taup=3.0,
 tempi=88.15, temp0=88.15,
 ntc=2, ntf=2,
 cut=9.0,
/

--------------------------------------------------------------------------------
   1.  RESOURCE   USE:
--------------------------------------------------------------------------------

 getting box info from netcdf restart file
 NATOM  =    1080 NTYPES =       2 NBONH =     864 MBONA  =       0
 NTHETH =    1296 MTHETA =       0 NPHIH =       0 MPHIA  =       0
 NHPARM =       0 NPARM  =       0 NNB   =    2376 NRES   =     216
 NBONA  =       0 NTHETA =       0 NPHIA =       0 NUMBND =       1
 NUMANG =       1 NPTRA  =       0 NATYP =       2 NPHB   =       0
 IFBOX  =       1 NMXRS  =       5 IFCAP =       0 NEXTRA =       0
 NCOPY  =       0

     BOX TYPE: RECTILINEAR

--------------------------------------------------------------------------------
   2.  CONTROL  DATA  FOR  THE  RUN
--------------------------------------------------------------------------------

default_name

General flags:
     imin    =       0, nmropt  =       0

Nature and format of input:
     ntx     =       1, irest   =       0, ntrx    =       1

Nature and format of output:
     ntxo    =       2, ntpr    =    2000, ntrx    =       1, ntwr    =    2000
     iwrap   =       1, ntwx    =    2000, ntwv    =       0, ntwe    =       0
     ioutfm  =       0, ntwprt  =       0, idecomp =       0, rbornstat=      0

Potential function:
     ntf     =       2, ntb     =       2, igb     =       0, nsnb    =      25
     ipol    =       0, gbsa    =       0, iesp    =       0
     dielc   =   1.00000, cut     =   9.00000, intdiel =   1.00000

Frozen or restrained atoms:
     ibelly  =       0, ntr     =       0

Molecular dynamics:
     nstlim  =   2000000, nscm    =      1000, nrespa  =         1
     t       =   0.00000, dt      =   0.00100, vlimit  =  -1.00000

Langevin dynamics temperature regulation:
     ig      =   71111
     temp0   =  88.15000, tempi   =  88.15000, gamma_ln=   3.00000

Pressure regulation:
     ntp     =       1
     pres0   =   1.00000, comp    =  44.60000, taup    =   3.00000

SHAKE:
     ntc     =       2, jfastw  =       0
     tol     =   0.00001

Ewald parameters:
     verbose =       0, ew_type =       0, nbflag  =       1, use_pme =       1
     vdwmeth =       1, eedmeth =       1, netfrc  =       1
     Box X =   27.509   Box Y =   27.389   Box Z =   27.834
     Alpha =   90.000   Beta  =   90.000   Gamma =   90.000
     NFFT1 =   28       NFFT2 =   28       NFFT3 =   28
     Cutoff=    9.000   Tol   =0.100E-04
     Ewald Coefficient =  0.30768
     Interpolation order =    4

--------------------------------------------------------------------------------
   3.  ATOMIC COORDINATES AND VELOCITIES
--------------------------------------------------------------------------------

default_name
 begin time read from input coords =   100.000 ps

 Number of triangulated 3-point waters found:        0

     Sum of charges from parm topology file =  -0.00000000
     Forcing neutrality...

--------------------------------------------------------------------------------
   4.  RESULTS
 NSTEP =        0   TIME(PS) =       0.000  TEMP(K) =   121.13  PRESS =  -201.2
 Etot   =       -83.3130  EKtot   =       285.9687  EPtot      =      -369.2817
 BOND   =         0.0000  ANGLE   =       112.0882  DIHED      =         0.0000
 1-4 NB =         0.0000  1-4 EEL =         0.0000  VDWAALS    =      -454.0660
 EELEC  =       -27.3038  EHBOND  =         0.0000  RESTRAINT  =         0.0000
 EKCMT  =        58.6552  VIRIAL  =       149.7404  VOLUME     =     20971.3603
                                                    Density    =         0.5494
 ------------------------------------------------------------------------------

      A V E R A G E S   O V E R    1000 S T E P S

 NSTEP =  2000000   TIME(PS) =    2000.000  TEMP(K) =    88.15  PRESS =    -7.4
 Etot   =      -260.3307  EKtot   =       208.1082  EPtot      =      -468.4389
 BOND   =         0.0000  ANGLE   =       108.0263  DIHED      =         0.0000
 1-4 NB =         0.0000  1-4 EEL =         0.0000  VDWAALS    =      -543.6281
 EELEC  =       -32.8371  EHBOND  =         0.0000  RESTRAINT  =         0.0000
 EKCMT  =        56.7440  VIRIAL  =        59.7854  VOLUME     =     15652.6164
                                                    Density    =         0.7367
 ------------------------------------------------------------------------------

      R M S  F L U C T U A T I O N S

 NSTEP =  2000000   TIME(PS) =    2000.000  TEMP(K) =     2.46  PRESS =   145.1
 Etot   =        14.1928  EKtot   =         5.8159  EPtot      =        13.1823
 BOND   =         0.0000  ANGLE   =         4.1689  DIHED      =         0.0000
 1-4 NB =         0.0000  1-4 EEL =         0.0000  VDWAALS    =        11.6898
 EELEC  =         2.0088  EHBOND  =         0.0000  RESTRAINT  =         0.0000
 EKCMT  =         3.0795  VIRIAL  =        50.2874  VOLUME     =       509.7996
                                                    Density    =         0.0195
 ------------------------------------------------------------------------------
