-------------------------------------------------------
          Amber 16 PMEMD                              2016
          -------------------------------------------------------

  [-O]verwriting output

File Assignments:

 Here is the input file:

Minimization
&cntrl
 imin=0,
 nstlim=2000000, dt=0.001,
 irest=0, ntx=1,
 ntpr=2000, ntwr=2000, ntwx=2000,
 ioutfm=0, iwrap=1,
 ntt=3, gamma_ln=3, ig=71111,
 ntb=2, ntp=1,
 pres0=1.0, taup=3.0,
 tempi=299.80, temp0=299.80,
 ntc=2, ntf=2,
 cut=9.0,
/

--------------------------------------------------------------------------------
   1.  RESOURCE   USE:
--------------------------------------------------------------------------------

 getting box info from netcdf restart file
 NATOM  =    3672 NTYPES =       3 NBONH =    2592 MBONA  =     864
 NTHETH =    5184 MTHETA =    1296 NPHIH =    7776 MPHIA  =       0
 NHPARM =       0 NPARM  =       0 NNB   =   17928 NRES   =     216
 NBONA  =     864 NTHETA =    1296 NPHIA =       0 NUMBND =       2
 NUMANG =       3 NPTRA  =       1 NATYP =       3 NPHB   =       0
 IFBOX  =       1 NMXRS  =      17 IFCAP =       0 NEXTRA =       0
 NCOPY  =       0

     BOX TYPE: RECTILINEAR

--------------------------------------------------------------------------------
   2.  CONTROL  DATA  FOR  THE  RUN
--------------------------------------------------------------------------------

default_name

General flags:
     imin    =       0, nmropt  =       0

Nature and format of input:
     ntx     =       1, irest   =       0, ntrx    =       1

Nature and format of output:
     ntxo    =       2, ntpr    =    2000, ntrx    =       1, ntwr    =    2000
     iwrap   =       1, ntwx    =    2000, ntwv    =       0, ntwe    =       0
     ioutfm  =       0, ntwprt  =       0, idecomp =       0, rbornstat=      0

Potential function:
     ntf     =       2, ntb     =       2, igb     =       0, nsnb    =      25
     ipol    =       0, gbsa    =       0, iesp    =       0
     dielc   =   1.00000, cut     =   9.00000, intdiel =   1.00000

Frozen or restrained atoms:
     ibelly  =       0, ntr     =       0

Molecular dynamics:
     nstlim  =   2000000, nscm    =      1000, nrespa  =         1
     t       =   0.00000, dt      =   0.00100, vlimit  =  -1.00000

Langevin dynamics temperature regulation:
     ig      =   71111
     temp0   = 299.80000, tempi   = 299.80000, gamma_ln=   3.00000

Pressure regulation:
     ntp     =       1
     pres0   =   1.00000, comp    =  44.60000, taup    =   3.00000

SHAKE:
     ntc     =       2, jfastw  =       0
     tol     =   0.00001

Ewald parameters:
     verbose =       0, ew_type =       0, nbflag  =       1, use_pme =       1
     vdwmeth =       1, eedmeth =       1, netfrc  =       1
     Box X =   44.387   Box Y =   44.467   Box Z =   45.066
     Alpha =   90.000   Beta  =   90.000   Gamma =   90.000
     NFFT1 =   48       NFFT2 =   48       NFFT3 =   48
     Cutoff=    9.000   Tol   =0.100E-04
     Ewald Coefficient =  0.30768
     Interpolation order =    4

--------------------------------------------------------------------------------
   3.  ATOMIC COORDINATES AND VELOCITIES
--------------------------------------------------------------------------------

default_name
 begin time read from input coords =   100.000 ps

 Number of triangulated 3-point waters found:        0

     Sum of charges from parm topology file =  -0.43200000
     Assuming uniform neutralizing plasma

--------------------------------------------------------------------------------
   4.  RESULTS
 NSTEP =        0   TIME(PS) =       0.000  TEMP(K) =   391.62  PRESS =   -76.0
 Etot   =     -1699.1047  EKtot   =      3277.8537  EPtot      =     -4976.9584
 BOND   =       262.5199  ANGLE   =      1610.2198  DIHED      =       284.6093
 1-4 NB =       -91.1340  1-4 EEL =     -8536.0278  VDWAALS    =      -708.2674
 EELEC  =      2201.1218  EHBOND  =         0.0000  RESTRAINT  =         0.0000
 EKCMT  =       198.6342  VIRIAL  =       344.6097  VOLUME     =     88949.1860
                                                    Density    =         0.3558
 ------------------------------------------------------------------------------

      A V E R A G E S   O V E R    1000 S T E P S

 NSTEP =  2000000   TIME(PS) =    2000.000  TEMP(K) =   299.67  PRESS =   -10.3
 Etot   =     -2751.5180  EKtot   =      2508.2477  EPtot      =     -5259.7657
 BOND   =       262.7904  ANGLE   =      1597.8442  DIHED      =       292.6616
 1-4 NB =       -89.6994  1-4 EEL =     -8541.9891  VDWAALS    =      -984.5695
 EELEC  =      2203.1961  EHBOND  =         0.0000  RESTRAINT  =         0.0000
 EKCMT  =       192.7850  VIRIAL  =       209.7973  VOLUME     =     59787.2851
                                                    Density    =         0.5352
 ------------------------------------------------------------------------------

      R M S  F L U C T U A T I O N S

 NSTEP =  2000000   TIME(PS) =    2000.000  TEMP(K) =     4.72  PRESS =   118.5
 Etot   =        95.2722  EKtot   =        39.5367  EPtot      =        85.8827
 BOND   =        13.0722  ANGLE   =        29.6346  DIHED      =        11.0016
 1-4 NB =         2.3549  1-4 EEL =         5.3173  VDWAALS    =        83.4949
 EELEC  =         1.6211  EHBOND  =         0.0000  RESTRAINT  =         0.0000
 EKCMT  =        10.4126  VIRIAL  =       151.8317  VOLUME     =      7212.2877
                                                    Density    =         0.0496
 ------------------------------------------------------------------------------
