-------------------------------------------------------
          Amber 12 SANDER                              2012
          -------------------------------------------------------

  [-O]verwriting output

File Assignments:

 Here is the input file:

Minimization
&cntrl
 imin=0,
 nstlim=1000000, dt=0.001,
 irest=0, ntx=1,
 ntpr=1000, ntwr=1000, ntwx=10000,
 ioutfm=0, iwrap=0,
 ntt=3, gamma_ln=3, ig=77777,
 ntb=0, ntp=0,
 tempi=0.0, temp0=299.80,
 ntc=2, ntf=2,
 cut=9.0,
/

--------------------------------------------------------------------------------
   1.  RESOURCE   USE:
--------------------------------------------------------------------------------

 NATOM  =      17 NTYPES =       3 NBONH =      12 MBONA  =       4
 NTHETH =      24 MTHETA =       6 NPHIH =      36 MPHIA  =       0
 NHPARM =       0 NPARM  =       0 NNB   =      83 NRES   =       1
 NBONA  =       4 NTHETA =       6 NPHIA =       0 NUMBND =       2
 NUMANG =       3 NPTRA  =       1 NATYP =       3 NPHB   =       0
 IFBOX  =       0 NMXRS  =      17 IFCAP =       0 NEXTRA =       0
 NCOPY  =       0

--------------------------------------------------------------------------------
   2.  CONTROL  DATA  FOR  THE  RUN
--------------------------------------------------------------------------------

default_name

General flags:
     imin    =       0, nmropt  =       0

Nature and format of input:
     ntx     =       1, irest   =       0, ntrx    =       1

Nature and format of output:
     ntxo    =       1, ntpr    =    1000, ntrx    =       1, ntwr    =    1000
     iwrap   =       0, ntwx    =   10000, ntwv    =       0, ntwe    =       0
     ioutfm  =       0, ntwprt  =       0, idecomp =       0, rbornstat=      0

Potential function:
     ntf     =       2, ntb     =       0, igb     =       0, nsnb    =      25
     ipol    =       0, gbsa    =       0, iesp    =       0
     dielc   =   1.00000, cut     =   9.00000, intdiel =   1.00000

Frozen or restrained atoms:
     ibelly  =       0, ntr     =       0

Molecular dynamics:
     nstlim  =   1000000, nscm    =      1000, nrespa  =         1
     t       =   0.00000, dt      =   0.00100, vlimit  =  20.00000

Langevin dynamics temperature regulation:
     ig      =   77777
     temp0   = 299.80000, tempi   =   0.00000, gamma_ln=   3.00000

SHAKE:
     ntc     =       2, jfastw  =       0
     tol     =   0.00001

--------------------------------------------------------------------------------
   3.  ATOMIC COORDINATES AND VELOCITIES
--------------------------------------------------------------------------------

default_name
 begin time read from input coords =     0.000 ps

 Number of triangulated 3-point waters found:        0

     Sum of charges from parm topology file =  -0.00200000
     Forcing neutrality...

--------------------------------------------------------------------------------
   4.  RESULTS
 NSTEP =        0   TIME(PS) =       0.000  TEMP(K) =     0.00  PRESS =     0.0
 Etot   =       -15.7713  EKtot   =         0.0000  EPtot      =       -15.7713
 BOND   =        15.5247  ANGLE   =         0.6488  DIHED      =         0.0000
 1-4 NB =        -0.1562  1-4 EEL =       -42.1045  VDWAALS    =        -0.5547
 EELEC  =        10.8705  EHBOND  =         0.0000  RESTRAINT  =         0.0000
 ------------------------------------------------------------------------------

      A V E R A G E S   O V E R 1000000 S T E P S

 NSTEP =  1000000   TIME(PS) =    1000.000  TEMP(K) =   298.88  PRESS =     0.0
 Etot   =        -8.7285  EKtot   =        11.5815  EPtot      =       -20.3100
 BOND   =         1.2028  ANGLE   =         7.3151  DIHED      =         1.3645
 1-4 NB =        -0.4215  1-4 EEL =       -39.6063  VDWAALS    =        -0.4118
 EELEC  =        10.2471  EHBOND  =         0.0000  RESTRAINT  =         0.0000
 ------------------------------------------------------------------------------

      R M S  F L U C T U A T I O N S

 NSTEP =  1000000   TIME(PS) =    1000.000  TEMP(K) =    67.05  PRESS =     0.0
 Etot   =         3.5415  EKtot   =         2.5981  EPtot      =         2.4144
 BOND   =         0.8556  ANGLE   =         2.0623  DIHED      =         0.7298
 1-4 NB =         0.1528  1-4 EEL =         0.3677  VDWAALS    =         0.0574
 EELEC  =         0.1067  EHBOND  =         0.0000  RESTRAINT  =         0.0000
 ------------------------------------------------------------------------------
