-------------------------------------------------------
          Amber 16 PMEMD                              2016
          -------------------------------------------------------

  [-O]verwriting output

File Assignments:

 Here is the input file:

Minimization
&cntrl
 imin=0,
 nstlim=2000000, dt=0.001,
 irest=0, ntx=1,
 ntpr=2000, ntwr=2000, ntwx=2000,
 ioutfm=0, iwrap=1,
 ntt=3, gamma_ln=3, ig=71111,
 ntb=2, ntp=1,
 pres0=1.0, taup=3.0,
 tempi=293.15, temp0=293.15,
 ntc=2, ntf=2,
 cut=9.0,
/

--------------------------------------------------------------------------------
   1.  RESOURCE   USE:
--------------------------------------------------------------------------------

 getting box info from netcdf restart file
 NATOM  =    3672 NTYPES =       2 NBONH =    2592 MBONA  =     864
 NTHETH =    5184 MTHETA =    1296 NPHIH =    7776 MPHIA  =       0
 NHPARM =       0 NPARM  =       0 NNB   =   17928 NRES   =     216
 NBONA  =     864 NTHETA =    1296 NPHIA =       0 NUMBND =       2
 NUMANG =       3 NPTRA  =       1 NATYP =       2 NPHB   =       0
 IFBOX  =       1 NMXRS  =      17 IFCAP =       0 NEXTRA =       0
 NCOPY  =       0

     BOX TYPE: RECTILINEAR

--------------------------------------------------------------------------------
   2.  CONTROL  DATA  FOR  THE  RUN
--------------------------------------------------------------------------------

default_name

General flags:
     imin    =       0, nmropt  =       0

Nature and format of input:
     ntx     =       1, irest   =       0, ntrx    =       1

Nature and format of output:
     ntxo    =       2, ntpr    =    2000, ntrx    =       1, ntwr    =    2000
     iwrap   =       1, ntwx    =    2000, ntwv    =       0, ntwe    =       0
     ioutfm  =       0, ntwprt  =       0, idecomp =       0, rbornstat=      0

Potential function:
     ntf     =       2, ntb     =       2, igb     =       0, nsnb    =      25
     ipol    =       0, gbsa    =       0, iesp    =       0
     dielc   =   1.00000, cut     =   9.00000, intdiel =   1.00000

Frozen or restrained atoms:
     ibelly  =       0, ntr     =       0

Molecular dynamics:
     nstlim  =   2000000, nscm    =      1000, nrespa  =         1
     t       =   0.00000, dt      =   0.00100, vlimit  =  -1.00000

Langevin dynamics temperature regulation:
     ig      =   71111
     temp0   = 293.15000, tempi   = 293.15000, gamma_ln=   3.00000

Pressure regulation:
     ntp     =       1
     pres0   =   1.00000, comp    =  44.60000, taup    =   3.00000

SHAKE:
     ntc     =       2, jfastw  =       0
     tol     =   0.00001

Ewald parameters:
     verbose =       0, ew_type =       0, nbflag  =       1, use_pme =       1
     vdwmeth =       1, eedmeth =       1, netfrc  =       1
     Box X =   38.082   Box Y =   37.554   Box Z =   38.035
     Alpha =   90.000   Beta  =   90.000   Gamma =   90.000
     NFFT1 =   40       NFFT2 =   40       NFFT3 =   40
     Cutoff=    9.000   Tol   =0.100E-04
     Ewald Coefficient =  0.30768
     Interpolation order =    4

--------------------------------------------------------------------------------
   3.  ATOMIC COORDINATES AND VELOCITIES
--------------------------------------------------------------------------------

default_name
 begin time read from input coords =   174.000 ps

 Number of triangulated 3-point waters found:        0

     Sum of charges from parm topology file =   0.86400000
     Assuming uniform neutralizing plasma

--------------------------------------------------------------------------------
   4.  RESULTS
 NSTEP =        0   TIME(PS) =       0.000  TEMP(K) =   382.93  PRESS =    28.4
 Etot   =      4017.6422  EKtot   =      3205.1462  EPtot      =       812.4960
 BOND   =       316.6164  ANGLE   =      1646.3017  DIHED      =       157.8369
 1-4 NB =       539.2391  1-4 EEL =     -2062.8953  VDWAALS    =     -1103.1990
 EELEC  =      1318.5962  EHBOND  =         0.0000  RESTRAINT  =         0.0000
 EKCMT  =       196.3750  VIRIAL  =       162.9889  VOLUME     =     54395.9353
                                                    Density    =         0.4757
 ------------------------------------------------------------------------------

      A V E R A G E S   O V E R    1000 S T E P S

 NSTEP =  2000000   TIME(PS) =    2000.000  TEMP(K) =   293.09  PRESS =   -10.8
 Etot   =      2885.8969  EKtot   =      2453.2119  EPtot      =       432.6850
 BOND   =       301.9420  ANGLE   =      1621.3847  DIHED      =       154.8405
 1-4 NB =       541.1168  1-4 EEL =     -2064.4032  VDWAALS    =     -1442.1327
 EELEC  =      1319.9369  EHBOND  =         0.0000  RESTRAINT  =         0.0000
 EKCMT  =       189.1479  VIRIAL  =       199.9206  VOLUME     =     40239.7432
                                                    Density    =         0.6437
 ------------------------------------------------------------------------------

      R M S  F L U C T U A T I O N S

 NSTEP =  2000000   TIME(PS) =    2000.000  TEMP(K) =     4.44  PRESS =   208.8
 Etot   =        65.5115  EKtot   =        37.1900  EPtot      =        54.1573
 BOND   =        14.3476  ANGLE   =        28.7361  DIHED      =         6.6614
 1-4 NB =         9.2263  1-4 EEL =         1.2956  VDWAALS    =        41.2230
 EELEC  =         0.9074  EHBOND  =         0.0000  RESTRAINT  =         0.0000
 EKCMT  =        10.5176  VIRIAL  =       183.6092  VOLUME     =      1407.4566
                                                    Density    =         0.0183
 ------------------------------------------------------------------------------
