-------------------------------------------------------
          Amber 16 PMEMD                              2016
          -------------------------------------------------------

  [-O]verwriting output

File Assignments:

 Here is the input file:

Minimization
&cntrl
 imin=0,
 nstlim=2000000, dt=0.001,
 irest=0, ntx=1,
 ntpr=2000, ntwr=2000, ntwx=2000,
 ioutfm=0, iwrap=1,
 ntt=3, gamma_ln=3, ig=71111,
 ntb=2, ntp=1,
 pres0=1.0, taup=3.0,
 tempi=293.15, temp0=293.15,
 ntc=2, ntf=2,
 cut=9.0,
/

--------------------------------------------------------------------------------
   1.  RESOURCE   USE:
--------------------------------------------------------------------------------

 getting box info from netcdf restart file
 NATOM  =    3672 NTYPES =       3 NBONH =    2592 MBONA  =     864
 NTHETH =    5184 MTHETA =    1296 NPHIH =    7776 MPHIA  =       0
 NHPARM =       0 NPARM  =       0 NNB   =   17928 NRES   =     216
 NBONA  =     864 NTHETA =    1296 NPHIA =       0 NUMBND =       2
 NUMANG =       3 NPTRA  =       1 NATYP =       3 NPHB   =       0
 IFBOX  =       1 NMXRS  =      17 IFCAP =       0 NEXTRA =       0
 NCOPY  =       0

     BOX TYPE: RECTILINEAR

--------------------------------------------------------------------------------
   2.  CONTROL  DATA  FOR  THE  RUN
--------------------------------------------------------------------------------

default_name

General flags:
     imin    =       0, nmropt  =       0

Nature and format of input:
     ntx     =       1, irest   =       0, ntrx    =       1

Nature and format of output:
     ntxo    =       2, ntpr    =    2000, ntrx    =       1, ntwr    =    2000
     iwrap   =       1, ntwx    =    2000, ntwv    =       0, ntwe    =       0
     ioutfm  =       0, ntwprt  =       0, idecomp =       0, rbornstat=      0

Potential function:
     ntf     =       2, ntb     =       2, igb     =       0, nsnb    =      25
     ipol    =       0, gbsa    =       0, iesp    =       0
     dielc   =   1.00000, cut     =   9.00000, intdiel =   1.00000

Frozen or restrained atoms:
     ibelly  =       0, ntr     =       0

Molecular dynamics:
     nstlim  =   2000000, nscm    =      1000, nrespa  =         1
     t       =   0.00000, dt      =   0.00100, vlimit  =  -1.00000

Langevin dynamics temperature regulation:
     ig      =   71111
     temp0   = 293.15000, tempi   = 293.15000, gamma_ln=   3.00000

Pressure regulation:
     ntp     =       1
     pres0   =   1.00000, comp    =  44.60000, taup    =   3.00000

SHAKE:
     ntc     =       2, jfastw  =       0
     tol     =   0.00001

Ewald parameters:
     verbose =       0, ew_type =       0, nbflag  =       1, use_pme =       1
     vdwmeth =       1, eedmeth =       1, netfrc  =       1
     Box X =   38.001   Box Y =   38.069   Box Z =   38.583
     Alpha =   90.000   Beta  =   90.000   Gamma =   90.000
     NFFT1 =   40       NFFT2 =   40       NFFT3 =   40
     Cutoff=    9.000   Tol   =0.100E-04
     Ewald Coefficient =  0.30768
     Interpolation order =    4

--------------------------------------------------------------------------------
   3.  ATOMIC COORDINATES AND VELOCITIES
--------------------------------------------------------------------------------

default_name
 begin time read from input coords =   400.000 ps

 Number of triangulated 3-point waters found:        0

     Sum of charges from parm topology file =  -0.43200000
     Assuming uniform neutralizing plasma

--------------------------------------------------------------------------------
   4.  RESULTS
 NSTEP =        0   TIME(PS) =       0.000  TEMP(K) =   382.93  PRESS =  -175.7
 Etot   =     -2176.6697  EKtot   =      3205.1462  EPtot      =     -5381.8158
 BOND   =       251.3751  ANGLE   =      1575.1132  DIHED      =       272.4453
 1-4 NB =       -92.1898  1-4 EEL =     -8543.0257  VDWAALS    =     -1049.7175
 EELEC  =      2204.1835  EHBOND  =         0.0000  RESTRAINT  =         0.0000
 EKCMT  =       194.2282  VIRIAL  =       405.9875  VOLUME     =     55816.1364
                                                    Density    =         0.5670
 ------------------------------------------------------------------------------

      A V E R A G E S   O V E R    1000 S T E P S

 NSTEP =  2000000   TIME(PS) =    2000.000  TEMP(K) =   293.05  PRESS =     4.7
 Etot   =     -2914.7183  EKtot   =      2452.8333  EPtot      =     -5367.5516
 BOND   =       257.3505  ANGLE   =      1563.3338  DIHED      =       288.5164
 1-4 NB =       -90.8847  1-4 EEL =     -8541.6441  VDWAALS    =     -1047.1827
 EELEC  =      2202.9592  EHBOND  =         0.0000  RESTRAINT  =         0.0000
 EKCMT  =       188.2843  VIRIAL  =       182.5852  VOLUME     =     55766.4451
                                                    Density    =         0.5675
 ------------------------------------------------------------------------------

      R M S  F L U C T U A T I O N S

 NSTEP =  2000000   TIME(PS) =    2000.000  TEMP(K) =     4.45  PRESS =   127.8
 Etot   =        53.4524  EKtot   =        37.2276  EPtot      =        38.1403
 BOND   =        12.2356  ANGLE   =        30.7774  DIHED      =        10.3423
 1-4 NB =         2.2471  1-4 EEL =         5.1725  VDWAALS    =        11.3727
 EELEC  =         1.6264  EHBOND  =         0.0000  RESTRAINT  =         0.0000
 EKCMT  =        10.2778  VIRIAL  =       153.0752  VOLUME     =       327.3375
                                                    Density    =         0.0033
 ------------------------------------------------------------------------------
