-------------------------------------------------------
          Amber 16 PMEMD                              2016
          -------------------------------------------------------

  [-O]verwriting output

File Assignments:

 Here is the input file:

Minimization
&cntrl
 imin=0,
 nstlim=2000000, dt=0.001,
 irest=0, ntx=1,
 ntpr=2000, ntwr=2000, ntwx=2000,
 ioutfm=0, iwrap=1,
 ntt=3, gamma_ln=3, ig=71111,
 ntb=2, ntp=1,
 pres0=1.0, taup=3.0,
 tempi=111.67, temp0=111.67,
 ntc=2, ntf=2,
 cut=9.0,
/

--------------------------------------------------------------------------------
   1.  RESOURCE   USE:
--------------------------------------------------------------------------------

 getting box info from netcdf restart file
 NATOM  =    1080 NTYPES =       2 NBONH =     864 MBONA  =       0
 NTHETH =    1296 MTHETA =       0 NPHIH =       0 MPHIA  =       0
 NHPARM =       0 NPARM  =       0 NNB   =    2376 NRES   =     216
 NBONA  =       0 NTHETA =       0 NPHIA =       0 NUMBND =       1
 NUMANG =       1 NPTRA  =       0 NATYP =       2 NPHB   =       0
 IFBOX  =       1 NMXRS  =       5 IFCAP =       0 NEXTRA =       0
 NCOPY  =       0

     BOX TYPE: RECTILINEAR

--------------------------------------------------------------------------------
   2.  CONTROL  DATA  FOR  THE  RUN
--------------------------------------------------------------------------------

default_name

General flags:
     imin    =       0, nmropt  =       0

Nature and format of input:
     ntx     =       1, irest   =       0, ntrx    =       1

Nature and format of output:
     ntxo    =       2, ntpr    =    2000, ntrx    =       1, ntwr    =    2000
     iwrap   =       1, ntwx    =    2000, ntwv    =       0, ntwe    =       0
     ioutfm  =       0, ntwprt  =       0, idecomp =       0, rbornstat=      0

Potential function:
     ntf     =       2, ntb     =       2, igb     =       0, nsnb    =      25
     ipol    =       0, gbsa    =       0, iesp    =       0
     dielc   =   1.00000, cut     =   9.00000, intdiel =   1.00000

Frozen or restrained atoms:
     ibelly  =       0, ntr     =       0

Molecular dynamics:
     nstlim  =   2000000, nscm    =      1000, nrespa  =         1
     t       =   0.00000, dt      =   0.00100, vlimit  =  -1.00000

Langevin dynamics temperature regulation:
     ig      =   71111
     temp0   = 111.67000, tempi   = 111.67000, gamma_ln=   3.00000

Pressure regulation:
     ntp     =       1
     pres0   =   1.00000, comp    =  44.60000, taup    =   3.00000

SHAKE:
     ntc     =       2, jfastw  =       0
     tol     =   0.00001

Ewald parameters:
     verbose =       0, ew_type =       0, nbflag  =       1, use_pme =       1
     vdwmeth =       1, eedmeth =       1, netfrc  =       1
     Box X =   26.956   Box Y =   26.961   Box Z =   27.199
     Alpha =   90.000   Beta  =   90.000   Gamma =   90.000
     NFFT1 =   28       NFFT2 =   28       NFFT3 =   28
     Cutoff=    9.000   Tol   =0.100E-04
     Ewald Coefficient =  0.30768
     Interpolation order =    4

--------------------------------------------------------------------------------
   3.  ATOMIC COORDINATES AND VELOCITIES
--------------------------------------------------------------------------------

default_name
 begin time read from input coords =   100.000 ps

 Number of triangulated 3-point waters found:        0

     Sum of charges from parm topology file =  -0.43200000
     Assuming uniform neutralizing plasma

--------------------------------------------------------------------------------
   4.  RESULTS
 NSTEP =        0   TIME(PS) =       0.000  TEMP(K) =   153.45  PRESS =  -297.2
 Etot   =       197.1902  EKtot   =       362.2702  EPtot      =      -165.0800
 BOND   =         0.0000  ANGLE   =       168.8522  DIHED      =         0.0000
 1-4 NB =         0.0000  1-4 EEL =         0.0000  VDWAALS    =      -333.5095
 EELEC  =        -0.4227  EHBOND  =         0.0000  RESTRAINT  =         0.0000
 EKCMT  =        73.7133  VIRIAL  =       200.5681  VOLUME     =     19766.7274
                                                    Density    =         0.2911
 ------------------------------------------------------------------------------

      A V E R A G E S   O V E R    1000 S T E P S

 NSTEP =  2000000   TIME(PS) =    2000.000  TEMP(K) =   111.55  PRESS =   -13.1
 Etot   =        -5.1869  EKtot   =       263.3456  EPtot      =      -268.5325
 BOND   =         0.0000  ANGLE   =       177.0888  DIHED      =         0.0000
 1-4 NB =         0.0000  1-4 EEL =         0.0000  VDWAALS    =      -444.8802
 EELEC  =        -0.7411  EHBOND  =         0.0000  RESTRAINT  =         0.0000
 EKCMT  =        71.8514  VIRIAL  =        76.4262  VOLUME     =     12721.0133
                                                    Density    =         0.4539
 ------------------------------------------------------------------------------

      R M S  F L U C T U A T I O N S

 NSTEP =  2000000   TIME(PS) =    2000.000  TEMP(K) =     3.14  PRESS =   171.0
 Etot   =        20.7086  EKtot   =         7.4092  EPtot      =        19.0625
 BOND   =         0.0000  ANGLE   =         5.2910  DIHED      =         0.0000
 1-4 NB =         0.0000  1-4 EEL =         0.0000  VDWAALS    =        18.3042
 EELEC  =         0.0512  EHBOND  =         0.0000  RESTRAINT  =         0.0000
 EKCMT  =         3.9218  VIRIAL  =        48.5797  VOLUME     =       896.4876
                                                    Density    =         0.0230
 ------------------------------------------------------------------------------
