-------------------------------------------------------
          Amber 16 PMEMD                              2016
          -------------------------------------------------------

  [-O]verwriting output

File Assignments:

 Here is the input file:

Minimization
&cntrl
 imin=0,
 nstlim=2000000, dt=0.001,
 irest=0, ntx=1,
 ntpr=2000, ntwr=2000, ntwx=2000,
 ioutfm=0, iwrap=1,
 ntt=3, gamma_ln=3, ig=71111,
 ntb=2, ntp=1,
 pres0=1.0, taup=3.0,
 tempi=299.80, temp0=299.80,
 ntc=2, ntf=2,
 cut=9.0,
/

--------------------------------------------------------------------------------
   1.  RESOURCE   USE:
--------------------------------------------------------------------------------

 getting box info from netcdf restart file
 NATOM  =    3672 NTYPES =       2 NBONH =    2592 MBONA  =     864
 NTHETH =    5184 MTHETA =    1296 NPHIH =    7776 MPHIA  =       0
 NHPARM =       0 NPARM  =       0 NNB   =   17928 NRES   =     216
 NBONA  =     864 NTHETA =    1296 NPHIA =       0 NUMBND =       2
 NUMANG =       3 NPTRA  =       1 NATYP =       2 NPHB   =       0
 IFBOX  =       1 NMXRS  =      17 IFCAP =       0 NEXTRA =       0
 NCOPY  =       0

     BOX TYPE: RECTILINEAR

--------------------------------------------------------------------------------
   2.  CONTROL  DATA  FOR  THE  RUN
--------------------------------------------------------------------------------

default_name

General flags:
     imin    =       0, nmropt  =       0

Nature and format of input:
     ntx     =       1, irest   =       0, ntrx    =       1

Nature and format of output:
     ntxo    =       2, ntpr    =    2000, ntrx    =       1, ntwr    =    2000
     iwrap   =       1, ntwx    =    2000, ntwv    =       0, ntwe    =       0
     ioutfm  =       0, ntwprt  =       0, idecomp =       0, rbornstat=      0

Potential function:
     ntf     =       2, ntb     =       2, igb     =       0, nsnb    =      25
     ipol    =       0, gbsa    =       0, iesp    =       0
     dielc   =   1.00000, cut     =   9.00000, intdiel =   1.00000

Frozen or restrained atoms:
     ibelly  =       0, ntr     =       0

Molecular dynamics:
     nstlim  =   2000000, nscm    =      1000, nrespa  =         1
     t       =   0.00000, dt      =   0.00100, vlimit  =  -1.00000

Langevin dynamics temperature regulation:
     ig      =   71111
     temp0   = 299.80000, tempi   = 299.80000, gamma_ln=   3.00000

Pressure regulation:
     ntp     =       1
     pres0   =   1.00000, comp    =  44.60000, taup    =   3.00000

SHAKE:
     ntc     =       2, jfastw  =       0
     tol     =   0.00001

Ewald parameters:
     verbose =       0, ew_type =       0, nbflag  =       1, use_pme =       1
     vdwmeth =       1, eedmeth =       1, netfrc  =       1
     Box X =   38.064   Box Y =   37.537   Box Z =   38.018
     Alpha =   90.000   Beta  =   90.000   Gamma =   90.000
     NFFT1 =   40       NFFT2 =   40       NFFT3 =   40
     Cutoff=    9.000   Tol   =0.100E-04
     Ewald Coefficient =  0.30768
     Interpolation order =    4

--------------------------------------------------------------------------------
   3.  ATOMIC COORDINATES AND VELOCITIES
--------------------------------------------------------------------------------

default_name
 begin time read from input coords =   184.000 ps

 Number of triangulated 3-point waters found:        0

     Sum of charges from parm topology file =   0.86400000
     Assuming uniform neutralizing plasma

--------------------------------------------------------------------------------
   4.  RESULTS
 NSTEP =        0   TIME(PS) =       0.000  TEMP(K) =   391.62  PRESS =  -369.6
 Etot   =      4134.9868  EKtot   =      3277.8537  EPtot      =       857.1331
 BOND   =       341.1143  ANGLE   =      1642.6950  DIHED      =       153.8450
 1-4 NB =       541.5092  1-4 EEL =     -2064.3182  VDWAALS    =     -1076.6862
 EELEC  =      1318.9740  EHBOND  =         0.0000  RESTRAINT  =         0.0000
 EKCMT  =       200.8296  VIRIAL  =       634.3395  VOLUME     =     54320.3417
                                                    Density    =         0.4764
 ------------------------------------------------------------------------------

      A V E R A G E S   O V E R    1000 S T E P S

 NSTEP =  2000000   TIME(PS) =    2000.000  TEMP(K) =   299.77  PRESS =    -8.5
 Etot   =      3015.1457  EKtot   =      2509.0846  EPtot      =       506.0611
 BOND   =       308.6972  ANGLE   =      1654.2103  DIHED      =       158.1938
 1-4 NB =       544.8210  1-4 EEL =     -2064.3352  VDWAALS    =     -1415.4052
 EELEC  =      1319.8792  EHBOND  =         0.0000  RESTRAINT  =         0.0000
 EKCMT  =       193.0979  VIRIAL  =       201.8830  VOLUME     =     40678.2441
                                                    Density    =         0.6367
 ------------------------------------------------------------------------------

      R M S  F L U C T U A T I O N S

 NSTEP =  2000000   TIME(PS) =    2000.000  TEMP(K) =     4.56  PRESS =   202.4
 Etot   =        67.8406  EKtot   =        38.1760  EPtot      =        56.1605
 BOND   =        14.4494  ANGLE   =        28.7227  DIHED      =         7.0804
 1-4 NB =         9.5264  1-4 EEL =         1.2807  VDWAALS    =        41.8104
 EELEC  =         0.9091  EHBOND  =         0.0000  RESTRAINT  =         0.0000
 EKCMT  =        10.2621  VIRIAL  =       179.5320  VOLUME     =      1365.0178
                                                    Density    =         0.0174
 ------------------------------------------------------------------------------
